Version 4.1
SHEET 1 2000 1324
WIRE 624 -688 192 -688
WIRE 304 -496 304 -512
WIRE 384 -496 304 -496
WIRE 528 -496 464 -496
WIRE 304 -432 304 -496
WIRE 240 -416 240 -512
WIRE 272 -416 240 -416
WIRE 528 -400 528 -496
WIRE 528 -400 336 -400
WIRE 640 -400 528 -400
WIRE -752 -384 -800 -384
WIRE 48 -384 0 -384
WIRE 176 -384 112 -384
WIRE 192 -384 192 -688
WIRE 192 -384 176 -384
WIRE 272 -384 192 -384
WIRE -864 -352 -864 -384
WIRE -800 -352 -800 -384
WIRE -800 -352 -864 -352
WIRE -800 -320 -800 -352
WIRE -752 -320 -800 -320
WIRE -864 -224 -864 -352
WIRE -848 -224 -864 -224
WIRE -848 -80 -848 -144
WIRE -768 -80 -848 -80
WIRE -848 -16 -848 -80
WIRE 0 -16 0 -384
WIRE 608 -16 0 -16
WIRE -176 0 -176 -48
WIRE -128 0 -176 0
WIRE 0 16 0 -16
WIRE 0 16 -64 16
WIRE -128 32 -208 32
WIRE -208 128 -208 32
WIRE -208 128 -320 128
WIRE -128 128 -208 128
WIRE 0 128 0 16
WIRE 0 128 -64 128
WIRE 64 128 0 128
WIRE 192 128 144 128
WIRE 240 128 192 128
WIRE 624 128 320 128
WIRE 448 176 384 176
WIRE 496 176 448 176
WIRE 448 208 448 176
WIRE 192 224 192 128
WIRE 416 224 192 224
WIRE 576 240 576 176
WIRE 576 240 480 240
WIRE 592 240 576 240
WIRE 624 240 624 128
WIRE 624 240 592 240
WIRE 656 240 624 240
WIRE 416 256 384 256
WIRE 384 288 384 256
WIRE -400 432 -400 128
WIRE 592 432 592 240
WIRE 592 432 -400 432
FLAG -96 -16 VDD
IOPIN -96 -16 In
FLAG -96 48 0
FLAG -176 -48 VCM
IOPIN -176 -48 In
FLAG 384 288 VCM
IOPIN 384 288 In
FLAG 448 272 0
FLAG 608 -16 VRAMP
IOPIN 608 -16 Out
FLAG 304 -368 0
FLAG 176 -304 VBIAS
IOPIN 176 -304 Out
FLAG 240 -512 VCTRL
IOPIN 240 -512 In
FLAG 624 -688 VRAMP_B
IOPIN 624 -688 Out
FLAG 304 -512 VDD
IOPIN 304 -512 In
FLAG 656 240 VSQR
IOPIN 656 240 Out
FLAG 384 176 VDD
IOPIN 384 176 In
FLAG 640 -400 PWM
IOPIN 640 -400 Out
FLAG -1216 80 0
FLAG -848 64 0
FLAG -864 -464 0
FLAG -1216 0 VCTRL
IOPIN -1216 0 Out
FLAG -768 -80 VDD
IOPIN -768 -80 Out
FLAG -752 -320 VCM
IOPIN -752 -320 Out
FLAG -672 -384 VBIAS
IOPIN -672 -384 Out
SYMBOL MCP6001 -96 16 R0
WINDOW 3 17 24 Left 0
SYMATTR InstName U1
SYMBOL cap -64 112 R90
WINDOW 0 0 32 VBottom 2
WINDOW 3 32 32 VTop 2
SYMATTR InstName C1
SYMATTR Value 0.1n
SYMBOL res 160 112 R90
WINDOW 0 0 56 VBottom 2
WINDOW 3 32 56 VTop 2
SYMATTR InstName R2
SYMATTR Value 1.5k
SYMBOL res -304 112 R90
WINDOW 0 0 56 VBottom 2
WINDOW 3 32 56 VTop 2
SYMATTR InstName R1
SYMATTR Value 125k
SYMBOL res 336 112 R90
WINDOW 0 0 56 VBottom 2
WINDOW 3 32 56 VTop 2
SYMATTR InstName R3
SYMATTR Value 16k
SYMBOL LM339 480 240 R0
WINDOW 3 -16 23 Left 0
SYMATTR InstName U2
SYMBOL LM339 336 -400 R0
WINDOW 3 -16 23 Left 0
SYMATTR InstName U3
SYMBOL cap 112 -400 R90
WINDOW 0 0 32 VBottom 2
WINDOW 3 32 32 VTop 2
SYMATTR InstName CBIAS
SYMATTR Value 0.1m
SYMBOL res 160 -400 R0
SYMATTR InstName RBIAS
SYMATTR Value 10k
SYMBOL res 480 -512 R90
WINDOW 0 0 56 VBottom 2
WINDOW 3 32 56 VTop 2
SYMATTR InstName Rpull2
SYMATTR Value 1k
SYMBOL res 592 160 R90
WINDOW 0 0 56 VBottom 2
WINDOW 3 32 56 VTop 2
SYMATTR InstName Rpull1
SYMATTR Value 1k
SYMBOL voltage -1216 -16 R0
WINDOW 123 0 0 Left 0
WINDOW 39 0 0 Left 0
SYMATTR InstName V1
SYMATTR Value 2.5
SYMBOL voltage -848 -32 R0
WINDOW 123 0 0 Left 0
WINDOW 39 0 0 Left 0
SYMATTR InstName V2
SYMATTR Value 5
SYMBOL res -864 -240 R0
SYMATTR InstName R4
SYMATTR Value 10k
SYMBOL res -880 -480 R0
SYMATTR InstName R5
SYMATTR Value 10k
SYMBOL res -656 -400 R90
WINDOW 0 0 56 VBottom 2
WINDOW 3 32 56 VTop 2
SYMATTR InstName R6
SYMATTR Value 10µ
TEXT -184 -952 Left 2 ;EXPERIMENT 1 - Ramp Generator and PWM Modulator
TEXT -1280 440 Left 2 !.tran 1m
